Metadata-Version: 1.1
Name: client-bank-exchange-1c
Version: 0.1.8
Summary: Handling of 1CClientBankExchange format
Home-page: https://github.com/kimaero/client_bank_exchange_1c
Author: Denis Kim
Author-email: denis@kim.aero
License: GNU General Public License v3
Description: ===============================
        1C Client Bank Exchange Handler
        ===============================
        
        
        .. image:: https://img.shields.io/pypi/v/client_bank_exchange_1c.svg
                :target: https://pypi.python.org/pypi/client_bank_exchange_1c
        
        .. image:: https://img.shields.io/travis/kimaero/client_bank_exchange_1c.svg
                :target: https://travis-ci.org/kimaero/client_bank_exchange_1c
        
        .. image:: https://readthedocs.org/projects/client-bank-exchange-1c/badge/?version=latest
                :target: https://client-bank-exchange-1c.readthedocs.io/en/latest/?badge=latest
                :alt: Documentation Status
        
        .. image:: https://pyup.io/repos/github/kimaero/client_bank_exchange_1c/shield.svg
             :target: https://pyup.io/repos/github/kimaero/client_bank_exchange_1c/
             :alt: Updates
        
        
        Handling of 1CClientBankExchange format
        
        
        * Free software: GNU General Public License v3
        * Documentation: https://client-bank-exchange-1c.readthedocs.io.
        
        
        Features
        --------
        
        * TODO
        
        Credits
        ---------
        
        This package was created with Cookiecutter_ and the `audreyr/cookiecutter-pypackage`_ project template.
        
        .. _Cookiecutter: https://github.com/audreyr/cookiecutter
        .. _`audreyr/cookiecutter-pypackage`: https://github.com/audreyr/cookiecutter-pypackage
        
        
        
        =======
        History
        =======
        
        0.1.0 (2017-09-24)
        ------------------
        
        * First release on PyPI.
        
Keywords: client_bank_exchange_1c
Platform: UNKNOWN
Classifier: Development Status :: 2 - Pre-Alpha
Classifier: Intended Audience :: Developers
Classifier: License :: OSI Approved :: GNU General Public License v3 (GPLv3)
Classifier: Natural Language :: English
Classifier: Natural Language :: Russian
Classifier: Programming Language :: Python :: 3.6
